Circuit: * Z:\home\tanita\Documentos\Proyecto balanceadora\Documentacion\Sim\Banco medicion.asc

.OP point found by inspection.

Date: Thu Aug 08 06:41:12 2019
Total elapsed time: 0.120 seconds.

tnom = 27
temp = 27
method = modified trap
totiter = 2092
traniter = 2092
tranpoints = 1047
accept = 1046
rejected = 1
matrix size = 4
fillins = 0
solver = Normal
Matrix Compiler1: 100 bytes object code size  0.7/0.7/[0.7]
Matrix Compiler2: 248 bytes object code size  0.7/0.7/[0.7]


